  
       XFOIL         Version 6.99
  
 Calculated polar for: F100MOD to 13.5 %                               
  
 1 1 Reynolds number fixed          Mach number fixed         
  
 xtrf =   0.050 (top)        1.000 (bottom)  
 Mach =   0.150     Re =    18.073 e 6     Ncrit =   9.000  9.000
  
   alpha    CL        CD       CDp       CM     Top_Xtr  Bot_Xtr  Top_Itr  Bot_Itr
  ------ -------- --------- --------- -------- -------- -------- -------- --------
   0.000   0.0216   0.00583   0.00041  -0.0039   0.0500   0.3119  62.6168 115.3031
   0.100   0.0330   0.00575   0.00039  -0.0039   0.0500   0.3347  62.6168 116.6910
   0.200   0.0444   0.00568   0.00038  -0.0040   0.0500   0.3581  62.6168 118.1180
   0.400   0.0670   0.00547   0.00033  -0.0041   0.0500   0.4218  62.6168 122.0379
   0.500   0.0782   0.00535   0.00031  -0.0041   0.0500   0.4581  62.6168 124.2677
   0.600   0.0895   0.00526   0.00029  -0.0042   0.0500   0.4848  62.6168 125.8997
   0.700   0.1012   0.00522   0.00029  -0.0043   0.0500   0.5001  62.6168 126.8378
   0.800   0.1130   0.00522   0.00029  -0.0044   0.0500   0.5078  62.6168 127.3087
   0.900   0.1247   0.00520   0.00030  -0.0045   0.0500   0.5162  62.6168 127.8203
   1.000   0.1365   0.00520   0.00030  -0.0046   0.0500   0.5249  62.6168 128.3514
   1.100   0.1482   0.00518   0.00030  -0.0047   0.0500   0.5349  62.6168 128.9629
   1.200   0.1599   0.00516   0.00030  -0.0048   0.0500   0.5456  62.6168 129.6111
   1.300   0.1718   0.00517   0.00031  -0.0049   0.0500   0.5504  62.6168 129.9012
   1.400   0.1837   0.00518   0.00031  -0.0050   0.0500   0.5518  62.6168 129.9910
   1.500   0.1955   0.00519   0.00032  -0.0051   0.0500   0.5559  62.6168 130.2384
   1.600   0.2074   0.00520   0.00032  -0.0052   0.0500   0.5597  62.6168 130.4693
   1.700   0.2193   0.00521   0.00033  -0.0053   0.0500   0.5625  62.6168 130.6381
   1.800   0.2311   0.00523   0.00033  -0.0054   0.0500   0.5647  62.6168 130.7749
   1.900   0.2430   0.00524   0.00034  -0.0055   0.0500   0.5665  62.6168 130.8809
   2.000   0.2549   0.00526   0.00034  -0.0056   0.0500   0.5677  62.6168 130.9536
   2.100   0.2668   0.00528   0.00035  -0.0057   0.0500   0.5687  62.6168 131.0145
   2.200   0.2787   0.00529   0.00035  -0.0058   0.0500   0.5724  62.6168 131.2425
   2.300   0.2905   0.00531   0.00036  -0.0059   0.0500   0.5758  62.6168 131.4491
   2.400   0.3024   0.00532   0.00036  -0.0060   0.0500   0.5785  62.6168 131.6109
   2.500   0.3142   0.00533   0.00036  -0.0061   0.0500   0.5807  62.6168 131.7423
   2.600   0.3261   0.00535   0.00037  -0.0062   0.0500   0.5823  62.6168 131.8396
   2.700   0.3380   0.00537   0.00037  -0.0063   0.0500   0.5834  62.6168 131.9061
   2.800   0.3498   0.00540   0.00037  -0.0064   0.0500   0.5841  62.6168 131.9526
   2.900   0.3617   0.00542   0.00037  -0.0065   0.0500   0.5847  62.6168 131.9892
   3.000   0.3736   0.00544   0.00038  -0.0066   0.0500   0.5864  62.6168 132.0904
   3.100   0.3854   0.00546   0.00038  -0.0067   0.0500   0.5896  62.6168 132.2833
   3.200   0.3973   0.00547   0.00038  -0.0068   0.0500   0.5927  62.6168 132.4705
   3.300   0.4091   0.00549   0.00038  -0.0069   0.0500   0.5954  62.6168 132.6382
   3.400   0.4209   0.00551   0.00038  -0.0070   0.0500   0.5978  62.6168 132.7808
   3.500   0.4327   0.00555   0.00039  -0.0071   0.0464   0.5994  63.0416 132.8828
   3.600   0.4444   0.00559   0.00039  -0.0071   0.0446   0.6005  63.2857 132.9497
   3.700   0.4560   0.00564   0.00041  -0.0072   0.0421   0.6013  63.6309 132.9942
   3.800   0.4678   0.00568   0.00041  -0.0073   0.0396   0.6037  63.9752 133.1415
   3.900   0.4795   0.00570   0.00041  -0.0074   0.0390   0.6067  64.0703 133.3221
   4.000   0.4913   0.00574   0.00042  -0.0074   0.0378   0.6091  64.2496 133.4689
   4.100   0.5029   0.00579   0.00043  -0.0075   0.0358   0.6112  64.5834 133.5961
   4.200   0.5146   0.00583   0.00043  -0.0076   0.0333   0.6131  64.9865 133.7089
   4.300   0.5263   0.00586   0.00043  -0.0076   0.0327   0.6146  65.0900 133.8029
   4.400   0.5380   0.00590   0.00043  -0.0077   0.0318   0.6158  65.2558 133.8771
   4.500   0.5497   0.00595   0.00044  -0.0078   0.0307   0.6169  65.4623 133.9394
   4.600   0.5613   0.00599   0.00044  -0.0078   0.0292   0.6177  65.7527 133.9878
   4.700   0.5731   0.00603   0.00044  -0.0079   0.0278   0.6201  66.0109 134.1343
   4.800   0.5848   0.00606   0.00044  -0.0080   0.0275   0.6237  66.0788 134.3559
   4.900   0.5964   0.00610   0.00044  -0.0081   0.0270   0.6267  66.1995 134.5330
   5.000   0.6081   0.00614   0.00044  -0.0081   0.0262   0.6291  66.3751 134.6768
   5.100   0.6197   0.00618   0.00044  -0.0082   0.0253   0.6310  66.5596 134.7928
   5.200   0.6314   0.00623   0.00044  -0.0082   0.0244   0.6323  66.7733 134.8724
   5.300   0.6430   0.00627   0.00044  -0.0083   0.0235   0.6332  66.9738 134.9259
   5.400   0.6548   0.00631   0.00043  -0.0084   0.0233   0.6339  67.0180 134.9674
   5.500   0.6665   0.00635   0.00042  -0.0084   0.0232   0.6345  67.0481 135.0057
   5.600   0.6782   0.00639   0.00041  -0.0085   0.0230   0.6375  67.0949 135.1859
   5.700   0.6898   0.00642   0.00040  -0.0086   0.0226   0.6408  67.1814 135.3831
   5.800   0.7013   0.00647   0.00040  -0.0086   0.0218   0.6435  67.3975 135.5478
   5.900   0.7128   0.00653   0.00040  -0.0086   0.0204   0.6459  67.7445 135.6903
   6.000   0.7244   0.00658   0.00040  -0.0087   0.0194   0.6478  68.0234 135.8052
   6.100   0.7360   0.00663   0.00039  -0.0087   0.0189   0.6491  68.1461 135.8871
   6.200   0.7474   0.00671   0.00040  -0.0087   0.0172   0.6500  68.6436 135.9423
   6.300   0.7588   0.00678   0.00040  -0.0088   0.0157   0.6507  69.1086 135.9801
   6.400   0.7700   0.00688   0.00042  -0.0087   0.0132   0.6516  69.9696 136.0341
   6.500   0.7812   0.00699   0.00044  -0.0087   0.0110   0.6541  70.8538 136.1854
   6.600   0.7924   0.00708   0.00046  -0.0087   0.0093   0.6566  71.5995 136.3335
   6.800   0.8141   0.00737   0.00055  -0.0085   0.0034   0.6603  75.2886 136.5546
   6.900   0.8254   0.00744   0.00054  -0.0085   0.0029   0.6618  75.7507 136.6483
   7.000   0.8369   0.00750   0.00053  -0.0086   0.0026   0.6633  76.0245 136.7324
   7.100   0.8483   0.00757   0.00052  -0.0086   0.0026   0.6644  76.0998 136.8039
   7.200   0.8597   0.00763   0.00050  -0.0086   0.0025   0.6654  76.1881 136.8614
   7.300   0.8712   0.00770   0.00049  -0.0086   0.0024   0.6662  76.2823 136.9063
   7.400   0.8825   0.00777   0.00047  -0.0086   0.0023   0.6668  76.3796 136.9418
   7.500   0.8939   0.00785   0.00045  -0.0086   0.0022   0.6672  76.4829 136.9702
   7.600   0.9053   0.00792   0.00043  -0.0086   0.0021   0.6676  76.5799 136.9928
   7.700   0.9166   0.00799   0.00041  -0.0086   0.0020   0.6689  76.6476 137.0674
   7.800   0.9280   0.00806   0.00039  -0.0086   0.0020   0.6710  76.6947 137.1947
   7.900   0.9394   0.00813   0.00036  -0.0086   0.0019   0.6732  76.7294 137.3265
   8.000   0.9507   0.00820   0.00034  -0.0086   0.0019   0.6752  76.7563 137.4417
   8.100   0.9620   0.00827   0.00031  -0.0086   0.0019   0.6769  76.7783 137.5434
   8.200   0.9733   0.00834   0.00028  -0.0086   0.0018   0.6784  76.7973 137.6363
   8.300   0.9846   0.00841   0.00025  -0.0086   0.0018   0.6798  76.8132 137.7187
   8.400   0.9959   0.00849   0.00022  -0.0086   0.0018   0.6810  76.8269 137.7920
   8.500   1.0071   0.00856   0.00019  -0.0086   0.0018   0.6820  76.8398 137.8502
   8.600   1.0184   0.00864   0.00016  -0.0086   0.0018   0.6828  76.8513 137.8993
   8.700   1.0296   0.00872   0.00012  -0.0085   0.0018   0.6835  76.8620 137.9384
   8.800   1.0408   0.00881   0.00008  -0.0085   0.0018   0.6840  76.8719 137.9692
   8.900   1.0520   0.00889   0.00005  -0.0085   0.0018   0.6844  76.8812 137.9933
   9.000   1.0632   0.00897   0.00001  -0.0085   0.0018   0.6858  76.8900 138.0750
   9.100   1.0743   0.00906  -0.00003  -0.0084   0.0017   0.6881  76.8985 138.2086
   9.200   1.0855   0.00914  -0.00008  -0.0084   0.0017   0.6903  76.9066 138.3406
   9.300   1.0966   0.00923  -0.00012  -0.0084   0.0017   0.6922  76.9145 138.4546
   9.400   1.1077   0.00931  -0.00017  -0.0083   0.0017   0.6940  76.9222 138.5570
   9.500   1.1188   0.00940  -0.00021  -0.0083   0.0017   0.6955  76.9297 138.6462
   9.600   1.1298   0.00949  -0.00026  -0.0082   0.0017   0.6969  76.9370 138.7267
   9.700   1.1408   0.00959  -0.00031  -0.0082   0.0017   0.6981  76.9442 138.7979
   9.800   1.1518   0.00968  -0.00036  -0.0081   0.0017   0.6991  76.9514 138.8569
   9.900   1.1628   0.00978  -0.00042  -0.0080   0.0017   0.6999  76.9584 138.9041
  10.000   1.1738   0.00988  -0.00047  -0.0080   0.0017   0.7005  76.9654 138.9411
  10.100   1.1847   0.00999  -0.00053  -0.0079   0.0017   0.7010  76.9725 138.9703
  10.200   1.1956   0.01009  -0.00059  -0.0078   0.0017   0.7014  76.9795 138.9921
  10.300   1.2064   0.01020  -0.00065  -0.0077   0.0017   0.7026  76.9865 139.0631
  10.400   1.2173   0.01030  -0.00071  -0.0077   0.0017   0.7047  76.9936 139.1868
  10.500   1.2281   0.01041  -0.00077  -0.0076   0.0016   0.7068  77.0001 139.3135
  10.600   1.2389   0.01052  -0.00084  -0.0075   0.0016   0.7088  77.0006 139.4290
  10.700   1.2497   0.01062  -0.00091  -0.0074   0.0016   0.7106  77.0013 139.5329
  10.800   1.2605   0.01072  -0.00098  -0.0073   0.0016   0.7122  77.0019 139.6300
  10.900   1.2712   0.01083  -0.00105  -0.0072   0.0016   0.7137  77.0026 139.7169
  11.000   1.2820   0.01094  -0.00113  -0.0071   0.0016   0.7151  77.0032 139.7949
  11.100   1.2927   0.01105  -0.00121  -0.0070   0.0016   0.7161  77.0040 139.8570
  11.200   1.3033   0.01117  -0.00129  -0.0069   0.0016   0.7170  77.0047 139.9076
  11.300   1.3140   0.01128  -0.00137  -0.0068   0.0016   0.7176  77.0054 139.9467
  11.400   1.3246   0.01140  -0.00146  -0.0067   0.0016   0.7182  77.0062 139.9767
  11.500   1.3352   0.01152  -0.00155  -0.0065   0.0016   0.7186  77.0070 139.9999
  11.600   1.3457   0.01164  -0.00164  -0.0064   0.0016   0.7206  77.0079 140.1177
  11.700   1.3562   0.01175  -0.00173  -0.0063   0.0016   0.7230  77.0087 140.2609
  11.800   1.3667   0.01187  -0.00183  -0.0061   0.0016   0.7253  77.0096 140.3946
  11.900   1.3771   0.01200  -0.00193  -0.0060   0.0016   0.7273  77.0106 140.5114
  12.000   1.3876   0.01212  -0.00203  -0.0059   0.0016   0.7291  77.0115 140.6174
  12.100   1.3979   0.01225  -0.00213  -0.0057   0.0016   0.7308  77.0125 140.7139
  12.200   1.4083   0.01237  -0.00224  -0.0055   0.0016   0.7322  77.0135 140.7975
  12.300   1.4185   0.01250  -0.00234  -0.0054   0.0016   0.7334  77.0146 140.8689
  12.400   1.4288   0.01264  -0.00246  -0.0052   0.0016   0.7344  77.0157 140.9221
  12.500   1.4390   0.01277  -0.00257  -0.0050   0.0016   0.7351  77.0169 140.9650
  12.600   1.4491   0.01291  -0.00269  -0.0049   0.0016   0.7357  77.0180 140.9980
  12.700   1.4593   0.01305  -0.00280  -0.0047   0.0016   0.7381  77.0193 141.1425
  12.800   1.4693   0.01319  -0.00292  -0.0045   0.0016   0.7411  77.0205 141.3180
  12.900   1.4794   0.01333  -0.00305  -0.0043   0.0016   0.7437  77.0218 141.4682
  13.000   1.4893   0.01347  -0.00317  -0.0041   0.0016   0.7460  77.0232 141.6015
  13.100   1.4992   0.01361  -0.00330  -0.0039   0.0016   0.7480  77.0246 141.7169
  13.200   1.5091   0.01376  -0.00343  -0.0036   0.0016   0.7497  77.0261 141.8159
  13.300   1.5189   0.01391  -0.00357  -0.0034   0.0016   0.7510  77.0276 141.8920
  13.400   1.5286   0.01406  -0.00370  -0.0032   0.0016   0.7519  77.0292 141.9482
  13.500   1.5383   0.01422  -0.00384  -0.0029   0.0016   0.7526  77.0308 141.9890
  13.600   1.5479   0.01438  -0.00398  -0.0027   0.0016   0.7548  77.0325 142.1133
  13.700   1.5574   0.01454  -0.00413  -0.0024   0.0016   0.7579  77.0343 142.3001
  13.800   1.5669   0.01470  -0.00427  -0.0021   0.0016   0.7607  77.0361 142.4626
  13.900   1.5763   0.01486  -0.00442  -0.0018   0.0016   0.7632  77.0380 142.6048
  14.000   1.5856   0.01503  -0.00457  -0.0016   0.0016   0.7653  77.0400 142.7303
  14.100   1.5948   0.01520  -0.00472  -0.0012   0.0016   0.7671  77.0421 142.8351
  14.200   1.6039   0.01537  -0.00487  -0.0009   0.0016   0.7684  77.0442 142.9117
  14.300   1.6129   0.01555  -0.00503  -0.0006   0.0016   0.7694  77.0465 142.9669
  14.400   1.6219   0.01573  -0.00519  -0.0003   0.0016   0.7704  77.0488 143.0298
  14.500   1.6307   0.01591  -0.00535   0.0001   0.0016   0.7737  77.0512 143.2239
  14.600   1.6395   0.01609  -0.00550   0.0004   0.0016   0.7768  77.0537 143.4069
  14.700   1.6481   0.01628  -0.00567   0.0008   0.0016   0.7794  77.0563 143.5608
  14.800   1.6566   0.01647  -0.00583   0.0012   0.0016   0.7818  77.0590 143.6978
  14.900   1.6649   0.01667  -0.00599   0.0016   0.0016   0.7837  77.0618 143.8105
  15.000   1.6731   0.01687  -0.00615   0.0020   0.0016   0.7851  77.0647 143.8926
  15.100   1.6811   0.01707  -0.00632   0.0025   0.0016   0.7860  77.0677 143.9504
  15.200   1.6882   0.01727  -0.00648   0.0031   0.0016   0.7867  77.0707 143.9922
  15.300   1.6943   0.01748  -0.00663   0.0039   0.0016   0.7891  77.0737 144.1353
  15.400   1.7006   0.01769  -0.00678   0.0046   0.0016   0.7924  77.0768 144.3306
  15.500   1.7068   0.01792  -0.00692   0.0053   0.0016   0.7950  77.0801 144.4907
  15.600   1.7129   0.01816  -0.00705   0.0060   0.0016   0.7974  77.0834 144.6312
  15.700   1.7187   0.01841  -0.00718   0.0067   0.0016   0.7994  77.0868 144.7532
  15.800   1.7244   0.01867  -0.00730   0.0074   0.0016   0.8010  77.0904 144.8479
  15.900   1.7300   0.01894  -0.00742   0.0081   0.0016   0.8021  77.0941 144.9154
  16.000   1.7354   0.01923  -0.00753   0.0088   0.0016   0.8029  77.0979 144.9633
  16.100   1.7407   0.01953  -0.00763   0.0095   0.0016   0.8035  77.1018 144.9975
  16.200   1.7460   0.01984  -0.00773   0.0101   0.0015   0.8059  77.1059 145.1455
  16.300   1.7511   0.02017  -0.00782   0.0107   0.0015   0.8088  77.1101 145.3238
  16.400   1.7563   0.02051  -0.00790   0.0113   0.0015   0.8112  77.1144 145.4717
  16.500   1.7612   0.02087  -0.00797   0.0119   0.0015   0.8133  77.1189 145.6015
  16.600   1.7661   0.02124  -0.00803   0.0124   0.0015   0.8152  77.1236 145.7176
  16.700   1.7708   0.02163  -0.00808   0.0130   0.0015   0.8168  77.1283 145.8169
  16.800   1.7756   0.02204  -0.00813   0.0135   0.0015   0.8181  77.1334 145.8930
  16.900   1.7801   0.02247  -0.00816   0.0139   0.0015   0.8190  77.1384 145.9496
  17.000   1.7845   0.02291  -0.00818   0.0144   0.0015   0.8197  77.1437 145.9905
  17.100   1.7889   0.02337  -0.00818   0.0149   0.0015   0.8217  77.1491 146.1149
  17.200   1.7932   0.02385  -0.00818   0.0153   0.0015   0.8247  77.1547 146.3026
  17.300   1.7975   0.02435  -0.00816   0.0156   0.0015   0.8272  77.1605 146.4614
  17.400   1.8013   0.02487  -0.00812   0.0160   0.0015   0.8294  77.1663 146.5965
  17.500   1.8052   0.02540  -0.00808   0.0164   0.0015   0.8313  77.1723 146.7182
  17.600   1.8087   0.02598  -0.00800   0.0167   0.0015   0.8331  77.1784 146.8271
  17.700   1.8125   0.02655  -0.00794   0.0171   0.0015   0.8345  77.1848 146.9163
  17.800   1.8157   0.02717  -0.00783   0.0174   0.0015   0.8357  77.1912 146.9882
  17.900   1.8191   0.02778  -0.00773   0.0177   0.0015   0.8390  77.1978 147.1935
  18.000   1.8219   0.02844  -0.00758   0.0180   0.0015   0.8430  77.2044 147.4427
  18.100   1.8249   0.02909  -0.00744   0.0182   0.0015   0.8462  77.2112 147.6455
  18.200   1.8273   0.02980  -0.00725   0.0185   0.0014   0.8493  77.2180 147.8374
  18.400   1.8321   0.03126  -0.00683   0.0189   0.0014   0.8625  77.2320 148.6562
  18.500   1.8347   0.03198  -0.00662   0.0191   0.0014   0.8753  77.2393 149.4465
