  
       XFOIL         Version 6.99
  
 Calculated polar for: F100MOD to 13.5 %                               
  
 1 1 Reynolds number fixed          Mach number fixed         
  
 xtrf =   0.050 (top)        1.000 (bottom)  
 Mach =   0.150     Re =    18.073 e 6     Ncrit =   9.000  9.000
  
   alpha    CL        CD       CDp       CM     Top_Xtr  Bot_Xtr  Top_Itr  Bot_Itr
  ------ -------- --------- --------- -------- -------- -------- -------- --------
   0.000   0.0216   0.00583   0.00041  -0.0039   0.0500   0.3119  62.6168 115.3031
   0.100   0.0330   0.00575   0.00039  -0.0039   0.0500   0.3347  62.6168 116.6910
   0.200   0.0444   0.00568   0.00038  -0.0040   0.0500   0.3581  62.6168 118.1180
   0.400   0.0670   0.00547   0.00033  -0.0041   0.0500   0.4218  62.6168 122.0379
   0.500   0.0782   0.00535   0.00031  -0.0041   0.0500   0.4581  62.6168 124.2677
   0.600   0.0895   0.00526   0.00029  -0.0042   0.0500   0.4848  62.6168 125.8997
   0.700   0.1012   0.00522   0.00029  -0.0043   0.0500   0.5001  62.6168 126.8378
   0.800   0.1130   0.00522   0.00029  -0.0044   0.0500   0.5078  62.6168 127.3087
   0.900   0.1247   0.00520   0.00030  -0.0045   0.0500   0.5162  62.6168 127.8203
   1.000   0.1365   0.00520   0.00030  -0.0046   0.0500   0.5249  62.6168 128.3514
   1.100   0.1482   0.00518   0.00030  -0.0047   0.0500   0.5349  62.6168 128.9629
   1.200   0.1599   0.00516   0.00030  -0.0048   0.0500   0.5456  62.6168 129.6111
   1.300   0.1718   0.00517   0.00031  -0.0049   0.0500   0.5504  62.6168 129.9012
   1.400   0.1837   0.00518   0.00031  -0.0050   0.0500   0.5518  62.6168 129.9910
   1.500   0.1955   0.00519   0.00032  -0.0051   0.0500   0.5559  62.6168 130.2384
   1.600   0.2074   0.00520   0.00032  -0.0052   0.0500   0.5597  62.6168 130.4693
   1.700   0.2193   0.00521   0.00033  -0.0053   0.0500   0.5625  62.6168 130.6381
   1.800   0.2311   0.00523   0.00033  -0.0054   0.0500   0.5647  62.6168 130.7749
   1.900   0.2430   0.00524   0.00034  -0.0055   0.0500   0.5665  62.6168 130.8809
   2.000   0.2549   0.00526   0.00034  -0.0056   0.0500   0.5677  62.6168 130.9536
   2.100   0.2668   0.00528   0.00035  -0.0057   0.0500   0.5687  62.6168 131.0145
   2.200   0.2787   0.00529   0.00035  -0.0058   0.0500   0.5724  62.6168 131.2425
   2.300   0.2905   0.00531   0.00036  -0.0059   0.0500   0.5758  62.6168 131.4491
   2.400   0.3024   0.00532   0.00036  -0.0060   0.0500   0.5785  62.6168 131.6109
   2.500   0.3142   0.00533   0.00036  -0.0061   0.0500   0.5807  62.6168 131.7423
   2.600   0.3261   0.00535   0.00037  -0.0062   0.0500   0.5823  62.6168 131.8396
   2.700   0.3380   0.00537   0.00037  -0.0063   0.0500   0.5834  62.6168 131.9061
   2.800   0.3498   0.00540   0.00037  -0.0064   0.0500   0.5841  62.6168 131.9526
   2.900   0.3617   0.00542   0.00037  -0.0065   0.0500   0.5847  62.6168 131.9892
   3.000   0.3736   0.00544   0.00038  -0.0066   0.0500   0.5864  62.6168 132.0904
   3.100   0.3854   0.00546   0.00038  -0.0067   0.0500   0.5896  62.6168 132.2833
   3.200   0.3973   0.00547   0.00038  -0.0068   0.0500   0.5927  62.6168 132.4705
   3.300   0.4091   0.00549   0.00038  -0.0069   0.0500   0.5954  62.6168 132.6382
   3.400   0.4209   0.00551   0.00038  -0.0070   0.0500   0.5978  62.6168 132.7808
   3.500   0.4327   0.00555   0.00039  -0.0071   0.0464   0.5994  63.0416 132.8828
   3.600   0.4444   0.00559   0.00039  -0.0071   0.0446   0.6005  63.2857 132.9497
   3.700   0.4560   0.00564   0.00041  -0.0072   0.0421   0.6013  63.6309 132.9942
   3.800   0.4678   0.00568   0.00041  -0.0073   0.0396   0.6037  63.9752 133.1415
   3.900   0.4795   0.00570   0.00041  -0.0074   0.0390   0.6067  64.0703 133.3221
   4.000   0.4913   0.00574   0.00042  -0.0074   0.0378   0.6091  64.2496 133.4689
   4.100   0.5029   0.00579   0.00043  -0.0075   0.0358   0.6112  64.5834 133.5961
   4.200   0.5146   0.00583   0.00043  -0.0076   0.0333   0.6131  64.9865 133.7089
   4.300   0.5263   0.00586   0.00043  -0.0076   0.0327   0.6146  65.0900 133.8029
   4.400   0.5380   0.00590   0.00043  -0.0077   0.0318   0.6158  65.2558 133.8771
   4.500   0.5497   0.00595   0.00044  -0.0078   0.0307   0.6169  65.4623 133.9394
   4.600   0.5613   0.00599   0.00044  -0.0078   0.0292   0.6177  65.7527 133.9878
   4.700   0.5731   0.00603   0.00044  -0.0079   0.0278   0.6201  66.0109 134.1343
   4.800   0.5848   0.00606   0.00044  -0.0080   0.0275   0.6237  66.0788 134.3559
   4.900   0.5964   0.00610   0.00044  -0.0081   0.0270   0.6267  66.1995 134.5330
   5.000   0.6081   0.00614   0.00044  -0.0081   0.0262   0.6291  66.3751 134.6768
   5.100   0.6197   0.00618   0.00044  -0.0082   0.0253   0.6310  66.5596 134.7928
   5.200   0.6314   0.00623   0.00044  -0.0082   0.0244   0.6323  66.7733 134.8724
   5.300   0.6430   0.00627   0.00044  -0.0083   0.0235   0.6332  66.9738 134.9259
   5.400   0.6548   0.00631   0.00043  -0.0084   0.0233   0.6339  67.0180 134.9674
   5.500   0.6665   0.00635   0.00042  -0.0084   0.0232   0.6345  67.0481 135.0057
   5.600   0.6782   0.00639   0.00041  -0.0085   0.0230   0.6375  67.0949 135.1859
   5.700   0.6898   0.00642   0.00040  -0.0086   0.0226   0.6408  67.1814 135.3831
   5.800   0.7013   0.00647   0.00040  -0.0086   0.0218   0.6435  67.3975 135.5478
   5.900   0.7128   0.00653   0.00040  -0.0086   0.0204   0.6459  67.7445 135.6903
   6.000   0.7244   0.00658   0.00040  -0.0087   0.0194   0.6478  68.0234 135.8052
   6.100   0.7360   0.00663   0.00039  -0.0087   0.0189   0.6491  68.1461 135.8871
   6.200   0.7474   0.00671   0.00040  -0.0087   0.0172   0.6500  68.6436 135.9423
   6.300   0.7588   0.00678   0.00040  -0.0088   0.0157   0.6507  69.1086 135.9801
   6.400   0.7700   0.00688   0.00042  -0.0087   0.0132   0.6516  69.9696 136.0341
   6.500   0.7812   0.00699   0.00044  -0.0087   0.0110   0.6541  70.8538 136.1854
   6.600   0.7924   0.00708   0.00046  -0.0087   0.0093   0.6566  71.5995 136.3335
